k23/sourcebus_11000.trafo_75589759_75589759/LineCodes.dss
New Linecode.1P_Code3 units=km nphases=1 R1=0.7839 R0=1e-05 X1=0.0915 X0=1e-05 C1=0.0001 C0=0.0001 BaseFreq=50
New Linecode.2P_Code0 units=km nphases=2 R1=0.164 R0=1e-05 X1=0.062 X0=1e-05 C1=0.0001 C0=0.0001 BaseFreq=50
New Linecode.2P_Code1 units=km nphases=2 R1=0.7839 R0=1e-05 X1=0.0915 X0=1e-05 C1=0.0001 C0=0.0001 BaseFreq=50
New Linecode.2P_Code2 units=km nphases=2 R1=0.32 R0=1e-05 X1=0.063 X0=1e-05 C1=0.0001 C0=0.0001 BaseFreq=50
